
@<TRIPOS>MOLECULE
OLMODEL
 1000  190
LIPID
Observables:    -4539.055206       95 
@<TRIPOS>ATOM
 1 W 2.726 9.9634 1.4736 W 
 2 P 0.26018 2.7542 2.5193 P 
 3 W 5.1031 7.3298 8.9555 W 
 4 W 4.2703 7.0098 1.836 W 
 5 P 1.9887 0.078518 1.187 P 
 6 W 6.5703 10.5 0.97516 W 
 7 W 8.2867 1.8592 9.7343 W 
 8 W 7.7455 7.6685 8.9211 W 
 9 P 0.69307 3.5942 2.258 P 
 10 H 0.93619 3.8904 1.3609 H 
 11 P 3.7941 0.32801 1.0206 P 
 12 H 2.7615 1.7663 0.28126 H 
 13 W 4.1017 10.612 0.13254 W 
 14 H 4.33 2.8687 9.9419 H 
 15 H 1.7534 1.8118 0.32585 H 
 16 W 5.5823 4.3563 9.8545 W 
 17 P 4.6301 0.53675 10.267 P 
 18 W 7.3746 10.335 9.7615 W 
 19 P 9.2316 3.5955 10.403 P 
 20 P 0.72745 1.3441 1.1965 P 
 21 W 7.8883 4.2173 0.80242 W 
 22 H 3.1648 1.1287 0.67128 H 
 23 W 4.4445 10.449 0.99515 W 
 24 H 0.49364 1.1054 3.0471 H 
 25 H 3.4355 2.6233 9.5066 H 
 26 W 5.343 2.1831 8.7638 W 
 27 H 3.2288 1.5851 10.101 H 
 28 W 6.7324 8.2941 0.55853 W 
 29 H 9.9486 2.694 10.269 H 
 30 H 0.25504 2.4794 10.31 H 
 31 W 2.3853 9.1502 2.8015 W 
 32 P 2.6816 1.0699 1.9451 P 
 33 H 3.0119 2.6524 0.69295 H 
 34 P 3.5472 3.7429 9.1818 P 
 35 W 4.9126 5.544 2.6727 W 
 36 W 7.3062 3.8768 9.1403 W 
 37 P 9.8378 4.653 10.078 P 
 38 H 10.607 3.9116 10.274 H 
 39 P 0.96531 4.0921 8.7326 P 
 40 W 9.9104 3.2698 4.7154 W 
 41 W 8.9829 7.5969 9.968 W 
 42 W 4.3059 5.5174 3.8687 W 
 43 W 9.5527 4.1031 1.2621 W 
 44 H 3.0805 3.504 9.9809 H 
 45 H 2.6078 2.5737 10.287 H 
 46 W 3.5792 3.9001 4.2185 W 
 47 H 4.9352 2.3527 2.7233 H 
 48 H 0.70424 4.389 10.11 H 
 49 P 1.2704 2.8548 2.2052 P 
 50 H 2.2489 3.6004 0.86096 H 
 51 W 9.2119 4.9512 9.1366 W 
 52 P 1.9715 4.3582 8.8782 P 
 53 P 4.5061 5.2067 10.502 P 
 54 W 8.6284 6.4267 1.6581 W 
 55 W 5.669 4.2239 8.4587 W 
 56 W 5.5847 6.8443 9.4771 W 
 57 W 6.7414 7.4008 8.6568 W 
 58 W 7.4335 7.085 9.5363 W 
 59 W 8.8143 4.333 2.9188 W 
 60 W 7.564 8.3038 10.458 W 
 61 W 0.51982 3.6565 7.2459 W 
 62 H 1.5662 3.98 10.191 H 
 63 W 5.6261 6.9504 0.45376 W 
 64 W 7.1224 7.3325 10.396 W 
 65 W 6.3696 6.2381 9.8276 W 
 66 W 7.4064 5.3986 9.5189 W 
 67 W 9.7286 8.4248 9.8086 W 
 68 W 5.9449 5.7236 10.59 W 
 69 W 8.4333 4.6455 0.16389 W 
 70 W 8.1412 5.5562 10.304 W 
 71 W 0.56646 5.4012 4.2536 W 
 72 H 2.2131 4.2962 0.20059 H 
 73 W 4.7145 6.3894 9.3212 W 
 74 W 6.4949 7.2597 9.5624 W 
 75 W 5.7879 7.3455 8.0302 W 
 76 W 5.2219 5.7209 10.026 W 
 77 W 6.694 5.6972 0.49241 W 
 78 W 7.8527 0.98501 7.6516 W 
 79 W 6.1009 2.6511 9.2539 W 
 80 W 8.0483 9.4279 8.5246 W 
 81 W 8.1117 7.4071 10.632 W 
 82 W 3.8918 7.7033 1.3239 W 
 83 W 1.9365 5.8704 3.1794 W 
 84 P 3.9433 10.644 9.8975 P 
 85 W 6.5289 6.4631 0.028588 W 
 86 W 8.0253 8.6175 9.1211 W 
 87 W 8.2884 0.15095 7.1686 W 
 88 W 7.8632 10.085 7.5113 W 
 89 W 7.4187 0.16282 7.9656 W 
 90 W 7.782 10.672 8.8688 W 
 91 P 1.2342 1.8876 1.8621 P 
 92 W 2.8549 5.3594 3.0161 W 
 93 H 1.9416 2.7433 0.2674 H 
 94 H 3.1685 0.46829 10.024 H 
 95 H 2.138 0.13782 9.8282 H 
 96 W 4.6906 8.4152 10.377 W 
 97 W 5.379 4.9392 10.661 W 
 98 W 4.5029 7.979 9.4139 W 
 99 P 9.81 2.5315 8.7291 P 
 100 W 8.8132 2.6908 9.2994 W 
 101 W 7.9865 2.7974 6.6154 W 
 102 W 3.7328 9.88 10.491 W 
 103 W 4.3006 9.6355 0.51045 W 
 104 W 6.2124 9.5546 1.2906 W 
 105 W 5.7901 7.9334 0.5535 W 
 106 H 4.226 1.3551 0.44975 H 
 107 W 5.4442 7.7782 9.6512 W 
 108 W 7.4827 3.2293 1.141 W 
 109 H 1.4668 3.6854 0.45047 H 
 110 H 1.2154 1.9215 10.319 H 
 111 H 0.93547 2.9579 0.39596 H 
 112 W 9.8512 2.8335 5.6013 W 
 113 W 10.577 2.3873 6.0354 W 
 114 W 6.2967 3.6495 9.5322 W 
 115 H 2.2 1.0521 0.75128 H 
 116 W 6.2895 0.32386 0.11077 W 
 117 W 6.1003 10.138 0.26543 W 
 118 W 7.8081 2.2858 8.9247 W 
 119 W 8.646 3.8474 1.5003 W 
 120 H 0.67064 1.7045 0.30913 H 
 121 W 8.7366 4.4686 3.8692 W 
 122 W 2.3667 3.9189 4.9423 W 
 123 P 5.3605 2.5547 9.9491 P 
 124 W 4.6375 4.1451 4.3462 W 
 125 W 7.168 3.468 2.1464 W 
 126 W 7.2882 0.39357 10.308 W 
 127 H 3.6579 1.0802 10.579 H 
 128 W 3.9987 4.2064 8.5442 W 
 129 W 6.7897 5.4374 10.294 W 
 130 W 9.5785 4.5553 3.4074 W 
 131 W 1.4951 5.077 4.3658 W 
 132 P 2.2466 2.9999 2.7341 P 
 133 H 3.131 1.8726 1.3325 H 
 134 W 10.4 3.6219 5.6186 W 
 135 W 1.3715 3.0559 3.2537 W 
 136 W 3.458 9.5662 3.0306 W 
 137 P 5.9778 3.7386 1.3531 P 
 138 H 5.8188 2.6739 2.4839 H 
 139 H 1.2586 3.3824 9.4855 H 
 140 H 1.6207 2.7041 10.072 H 
 141 W 10.319 5.1169 4.1522 W 
 142 H 3.6465 2.625 1.6164 H 
 143 P 1.6426 3.8936 2.4544 P 
 144 P 3.0919 1.4032 2.9361 P 
 145 H 4.5292 2.3216 1.8134 H 
 146 W 8.7667 6.1282 2.6809 W 
 147 W 5.8997 9.2 10.116 W 
 148 W 7.4389 6.7786 0.43372 W 
 149 W 6.4674 4.4302 3.1441 W 
 150 H 1.5481 3.1021 1.1976 H 
 151 W 9.5686 5.0585 2.5151 W 
 152 H 3.1948 3.8406 0.32887 H 
 153 H 3.984 4.5228 0.19568 H 
 154 H 4.0182 3.0511 2.7 H 
 155 P 4.5503 5.2498 1.1299 P 
 156 P 4.7556 4.6388 2.6163 P 
 157 W 6.1393 5.1592 9.7509 W 
 158 W 7.7279 6.0018 1.3448 W 
 159 W 7.8667 6.73 3.0551 W 
 160 W 8.8516 5.215 3.1688 W 
 161 H 3.2487 3.3763 2.1627 H 
 162 H 2.2071 3.5961 9.609 H 
 163 P 3.4231 6.1523 10.48 P 
 164 W 5.4897 6.5361 10.421 W 
 165 H 3.3429 3.4998 1.2382 H 
 166 W 4.7594 6.8379 0.23281 W 
 167 W 5.4875 5.605 1.7608 W 
 168 W 7.1201 7.7672 2.9833 W 
 169 W 4.0695 9.863 9.2225 W 
 170 W 8.3553 8.3379 0.16141 W 
 171 W 9.456 5.8623 1.9835 W 
 172 H 2.0747 5.3062 0.20486 H 
 173 W 0.21357 5.9186 6.4807 W 
 174 W 4.1144 6.0796 1.4694 W 
 175 P 4.1708 5.9907 0.45112 P 
 176 H 2.4499 5.283 1.056 H 
 177 W 7.4909 8.7352 0.51013 W 
 178 W 7.0909 8.6309 1.384 W 
 179 W 3.7549 9.6231 8.3738 W 
 180 W 7.9405 3.8978 10.575 W 
 181 W 2.7963 7.2402 4.4547 W 
 182 W 3.1711 7.3167 0.59085 W 
 183 W 3.3472 8.7571 3.7394 W 
 184 W 5.6602 8.589 2.4303 W 
 185 W 3.4578 9.2183 1.0492 W 
 186 W 4.1649 6.1489 8.6209 W 
 187 W 8.1616 0.89774 9.5608 W 
 188 W 7.1643 1.596 8.9616 W 
 189 H 0.45153 1.5727 9.915 H 
 190 W 3.1629 7.8341 3.4319 W 
 191 W 2.8064 7.0717 2.4418 W 
 192 P 2.022 0.024309 2.7949 P 
 193 W 5.5707 10.213 1.2187 W 
 194 W 3.1717 8.6585 2.5941 W 
 195 P 5.0393 0.83917 0.25756 P 
 196 W 3.5187 7.2258 6.9637 W 
 197 W 5.3448 0.0067187 10.535 W 
 198 W 2.3297 2.8359 4.7433 W 
 199 H 10.537 2.2202 9.4553 H 
 200 W 8.0641 5.1999 3.7089 W 
 201 W 3.3226 7.7946 2.1301 W 
 202 H 10.258 0.96393 2.1049 H 
 203 W 5.1615 7.9192 2.8531 W 
 204 W 5.3597 0.52462 9.5582 W 
 205 H 4.8929 1.9551 0.94244 H 
 206 W 5.9968 8.9705 0.59501 W 
 207 W 6.5142 5.4558 1.441 W 
 208 W 4.5938 8.8267 1.8944 W 
 209 W 10.341 5.9543 3.7905 W 
 210 W 4.2069 9.5011 2.4864 W 
 211 W 8.255 3.6929 3.2699 W 
 212 W 1.5655 5.9577 4.1136 W 
 213 W 4.2385 8.5072 4.0484 W 
 214 W 1.775 0.8553 2.0131 W 
 215 W 3.6673 1.9323 6.0278 W 
 216 W 1.3944 9.9432 1.1528 W 
 217 W 6.5986 1.1594 10.353 W 
 218 W 9.4369 4.4328 0.1064 W 
 219 W 7.1686 4.9482 0.90953 W 
 220 H 10.702 3.1824 0.17236 H 
 221 W 9.6262 3.5012 3.2103 W 
 222 W 0.85514 3.4268 4.0269 W 
 223 W 3.7639 2.2145 6.9306 W 
 224 W 6.9893 10.214 10.669 W 
 225 W 5.9829 4.8957 4.1017 W 
 226 H 3.6873 2.0249 0.1179 H 
 227 W 5.1227 10.123 0.38194 W 
 228 W 7.7737 4.8767 1.7013 W 
 229 W 4.9859 9.2573 10.666 W 
 230 W 7.7965 2.4297 0.73544 W 
 231 W 7.0773 4.115 4.7475 W 
 232 W 0.56679 4.4542 2.8855 W 
 233 H 1.7222 4.3916 1.18 H 
 234 W 10.362 3.2471 1.6418 W 
 235 W 2.7206 9.7013 3.588 W 
 236 H 5.1888 3.0748 1.4226 H 
 237 H 4.296 3.2815 1.4505 H 
 238 W 6.9329 4.5532 2.1778 W 
 239 W 7.7625 7.0228 1.4517 W 
 240 W 8.2346 6.4728 10.51 W 
 241 W 9.5797 4.0822 2.3329 W 
 242 H 2.5597 2.9456 1.6066 H 
 243 H 2.1497 3.8911 1.6853 H 
 244 H 3.8067 2.0954 2.373 H 
 245 H 3.2174 4.2999 1.8965 H 
 246 W 3.074 6.1993 4.7119 W 
 247 W 8.9069 5.5258 1.3512 W 
 248 W 6.9346 6.0874 2.7589 W 
 249 W 8.7297 4.6841 1.0736 W 
 250 W 0.091117 5.7204 7.3924 W 
 251 W 7.8871 8.1784 1.4809 W 
 252 W 7.3799 4.1409 2.9432 W 
 253 P 5.5577 4.0093 2.988 P 
 254 H 5.0001 3.2451 2.3399 H 
 255 H 4.0143 4.3038 1.2327 H 
 256 H 4.1241 3.9477 2.1388 H 
 257 W 4.9347 7.1319 3.7257 W 
 258 W 5.366 5.6247 3.6381 W 
 259 W 8.7657 3.8223 0.47372 W 
 260 W 7.7095 4.222 3.8102 W 
 261 W 9.9569 5.204 0.65308 W 
 262 W 4.1216 7.8667 6.4914 W 
 263 H 3.6187 3.9637 2.9901 H 
 264 W 5.0605 6.327 1.0286 W 
 265 W 6.0438 6.1824 0.86614 W 
 266 W 7.2578 6.7725 7.1651 W 
 267 W 6.3837 6.2296 1.989 W 
 268 W 8.0338 6.8701 5.0719 W 
 269 H 6.2305 1.5393 2.425 H 
 270 W 8.0154 4.8572 2.6964 W 
 271 P 10.483 4.3891 0.95356 P 
 272 W 5.4357 9.4464 1.9557 W 
 273 H 2.8088 5.9088 0.42941 H 
 274 W 5.0751 9.3913 1.0326 W 
 275 H 3.4658 5.1707 0.82838 H 
 276 W 4.5784 6.8955 4.9146 W 
 277 P 7.2488 8.6676 4.0279 P 
 278 W 7.406 1.2397 9.8959 W 
 279 W 6.5462 7.9983 3.8295 W 
 280 W 5.1959 6.7733 1.9981 W 
 281 W 2.1356 3.7814 3.2208 W 
 282 W 3.5978 7.8275 4.3622 W 
 283 W 2.6952 6.9046 5.4429 W 
 284 W 4.9775 7.2611 1.1151 W 
 285 W 4.0985 6.8506 4.0273 W 
 286 W 3.7811 8.0211 10.336 W 
 287 W 8.0202 7.7622 9.7859 W 
 288 W 6.5013 9.0997 2.0873 W 
 289 W 6.5543 7.3231 0.64332 W 
 290 W 4.8496 7.4651 8.1008 W 
 291 H 10.577 1.8447 2.2668 H 
 292 W 4.3074 9.6303 1.4271 W 
 293 W 3.4214 6.1388 2.197 W 
 294 W 5.8997 7.1166 1.3502 W 
 295 W 4.1041 7.6256 3.373 W 
 296 W 4.3427 7.8987 2.2618 W 
 297 W 6.1063 8.0466 1.5193 W 
 298 W 6.1164 1.3809 0.57692 W 
 299 W 10.404 4.2261 1.9359 W 
 300 W 9.1267 3.1597 1.1072 W 
 301 P 10.287 2.9824 3.6604 P 
 302 H 8.7804 1.983 2.9339 H 
 303 P 0.39972 2.6079 3.6594 P 
 304 P 4.4534 2.1082 5.1323 P 
 305 W 3.6276 8.5627 1.7538 W 
 306 P 3.5607 10.667 2.605 P 
 307 P 6.2182 10.068 2.1293 P 
 308 W 5.7586 8.71 3.4148 W 
 309 W 9.8512 5.0116 1.6377 W 
 310 P 9.9994 3.5762 0.5535 P 
 311 W 8.0045 3.3915 4.1901 W 
 312 H 9.7431 2.0989 3.2134 H 
 313 W 3.069 3.3998 4.9046 W 
 314 P 4.9015 10.243 1.911 P 
 315 H 4.6395 1.4484 2.6059 H 
 316 H 4.9035 10.629 4.0765 H 
 317 P 7.0398 2.1576 5.1658 P 
 318 W 7.2084 0.31916 0.42394 W 
 319 P 6.5922 0.7545 1.1041 P 
 320 W 7.2075 5.495 2.011 W 
 321 P 8.934 2.3533 5.3882 P 
 322 H 9.1958 0.3952 4.4337 H 
 323 P 10.582 2.4198 4.46 P 
 324 W 3.8963 4.7159 4.6154 W 
 325 W 4.6549 5.4399 4.7255 W 
 326 P 5.6572 0.34151 0.88566 P 
 327 H 5.5437 0.71116 2.4378 H 
 328 H 6.4257 2.2186 3.1398 H 
 329 H 7.6207 0.66716 2.8491 H 
 330 W 8.1892 4.5397 6.4033 W 
 331 W 10.366 3.4701 2.6797 W 
 332 W 2.8893 4.6824 4.5338 W 
 333 W 1.5309 2.5765 6.6444 W 
 334 P 3.4134 2.4396 3.8939 P 
 335 H 4.4736 0.96106 3.4793 H 
 336 H 4.0515 1.5054 1.6586 H 
 337 W 5.6319 5.2466 0.85252 W 
 338 W 8.7233 3.5334 2.403 W 
 339 W 7.9676 4.0391 2.1296 W 
 340 W 8.7984 4.7203 2.0589 W 
 341 P 9.3007 2.6165 4.4674 P 
 342 W 0.4252 3.4461 3.1722 W 
 343 W 9.247 5.6284 4.9949 W 
 344 W 3.8137 10.434 1.7382 W 
 345 W 2.8321 4.5903 3.5536 W 
 346 W 5.5085 6.8992 2.8364 W 
 347 W 4.8496 4.7518 3.5826 W 
 348 W 7.6258 5.8817 0.24401 W 
 349 W 2.3306 5.2966 3.9353 W 
 350 W 10.04 5.4423 5.7486 W 
 351 W 9.1148 4.9051 5.6878 W 
 352 W 2.5733 4.7994 5.5073 W 
 353 W 1.3031 4.994 3.4463 W 
 354 W 2.2966 5.4644 4.8739 W 
 355 W 4.0189 5.4892 2.9714 W 
 356 W 7.7915 5.8603 4.5467 W 
 357 W 5.7195 4.4653 2.177 W 
 358 W 6.3633 6.7633 3.092 W 
 359 W 7.7673 7.6555 2.2644 W 
 360 W 7.3501 5.9293 3.6543 W 
 361 P 3.807 4.7371 3.6944 P 
 362 W 4.9767 7.4647 6.2195 W 
 363 W 3.1353 6.9563 3.5512 W 
 364 W 3.3241 6.9245 1.5518 W 
 365 W 7.0494 9.642 0.83437 W 
 366 W 3.6269 6.2879 5.7569 W 
 367 W 6.3797 5.2537 2.5222 W 
 368 W 5.2742 7.7272 1.9115 W 
 369 P 6.2747 3.5311 2.3548 P 
 370 W 8.9304 5.4041 0.31624 W 
 371 W 5.2775 8.2775 6.6721 W 
 372 P 2.1208 4.6566 2.8649 P 
 373 W 3.6838 6.9944 2.6777 W 
 374 W 5.4058 8.6275 1.429 W 
 375 W 5.7617 5.9496 2.7491 W 
 376 H 7.0011 9.4159 4.6699 H 
 377 W 4.3632 6.269 2.4548 W 
 378 W 5.0465 8.1401 3.7737 W 
 379 W 7.5416 7.7257 0.66126 W 
 380 W 7.5772 8.7063 2.3171 W 
 381 H 9.5918 2.152 2.3356 H 
 382 P 9.5589 3.1684 2.1063 P 
 383 W 4.3681 7.6912 0.46791 W 
 384 W 3.407 10.107 0.78942 W 
 385 P 5.3841 9.1283 6.2522 P 
 386 W 5.2162 7.5765 10.679 W 
 387 W 6.9636 7.4782 1.4506 W 
 388 H 6.4487 0.085073 5.5845 H 
 389 P 7.4733 9.3019 3.0601 P 
 390 H 7.2164 9.9484 3.8493 H 
 391 H 9.4347 1.2782 2.8336 H 
 392 W 2.5691 6.2473 3.9024 W 
 393 W 4.0998 7.905 5.3588 W 
 394 W 3.0576 6.3213 7.2981 W 
 395 W 3.3312 9.6283 2.0732 W 
 396 W 5.6544 8.4049 10.542 W 
 397 H 6.3063 10.143 3.4673 H 
 398 H 5.9073 0.015667 4.0075 H 
 399 P 7.8886 2.0726 5.7435 P 
 400 H 7.8231 10.718 3.8329 H 
 401 P 10.073 2.0112 5.1633 P 
 402 H 10.266 1.0001 3.2071 H 
 403 H 10.727 1.8506 3.2608 H 
 404 H 4.8485 1.2567 5.096 H 
 405 H 5.3635 0.68864 4.3403 H 
 406 H 5.6539 0.71186 5.2136 H 
 407 H 6.268 0.18896 2.8382 H 
 408 H 5.4154 0.10477 3.1975 H 
 409 P 7.4831 2.3676 1.7255 P 
 410 P 7.8537 1.369 6.4535 P 
 411 W 6.5583 3.0984 0.27374 W 
 412 W 4.8843 2.8882 5.5987 W 
 413 H 9.5203 1.0566 3.8389 H 
 414 H 3.4433 1.1652 9.2856 H 
 415 H 4.6403 0.3812 2.5487 H 
 416 H 4.207 10.636 3.4147 H 
 417 H 7.0907 1.3526 4.7497 H 
 418 H 6.3212 1.0098 4.3217 H 
 419 H 7.3576 1.5614 2.2236 H 
 420 H 8.4077 1.2116 2.5282 H 
 421 W 1.2727 4.3143 7.033 W 
 422 H 8.9018 1.4061 4.7373 H 
 423 H 10.117 1.6584 4.0918 H 
 424 W 1.2419 3.9415 3.3641 W 
 425 W 1.9439 10.186 1.9275 W 
 426 W 6.2254 1.879 8.8445 W 
 427 H 5.1986 1.0732 1.5584 H 
 428 P 6.8056 2.2225 0.83016 P 
 429 H 6.7602 0.79702 2.1874 H 
 430 P 7.1371 2.7646 4.4011 P 
 431 H 8.6506 0.84227 3.5494 H 
 432 W 8.9791 3.4747 4.1155 W 
 433 W 1.2657 4.1461 4.6336 W 
 434 W 4.2622 3.0076 7.4612 W 
 435 H 4.2443 1.9207 3.2872 H 
 436 W 7.7659 6.437 2.1724 W 
 437 W 5.575 4.0109 4.0651 W 
 438 W 8.5847 5.4606 6.3485 W 
 439 P 8.0205 2.5329 4.7612 P 
 440 H 7.9503 1.6495 4.2254 H 
 441 H 9.0133 1.8058 3.8738 H 
 442 W 2.1979 6.498 4.8088 W 
 443 W 3.191 5.6603 6.5177 W 
 444 W 3.7071 6.2298 3.4875 W 
 445 W 5.1122 3.7335 5.1978 W 
 446 W 7.6168 5.5487 6.0851 W 
 447 W 6.3011 5.5769 3.4477 W 
 448 W 8.3129 5.5748 2.0391 W 
 449 P 8.3979 2.9248 1.6708 P 
 450 H 7.5662 0.88166 3.8016 H 
 451 W 7.8722 5.7455 2.8357 W 
 452 W 2.056 4.3863 4.028 W 
 453 W 3.2867 5.4444 3.9854 W 
 454 W 10.447 3.9025 3.5879 W 
 455 W 4.8976 8.6432 4.7706 W 
 456 W 6.1698 3.6901 4.8849 W 
 457 W 5.9172 5.7724 4.3414 W 
 458 W 6.9268 4.8377 3.9025 W 
 459 W 0.68065 4.4542 4.021 W 
 460 W 0.60154 5.9037 5.5588 W 
 461 W 0.10461 4.605 5.7128 W 
 462 H 2.7707 4.2993 1.0649 H 
 463 W 4.0276 8.65 3.0947 W 
 464 W 3.7854 5.3788 5.2974 W 
 465 W 6.1889 5.5676 5.465 W 
 466 W 6.7419 5.5573 4.6876 W 
 467 W 7.1342 7.0791 3.6765 W 
 468 W 5.8533 7.427 3.612 W 
 469 W 7.4875 4.3393 5.6404 W 
 470 W 8.5192 5.1166 4.5807 W 
 471 W 8.0688 8.2884 8.1511 W 
 472 H 2.3625 4.8492 1.9252 H 
 473 W 4.0699 6.8711 0.93606 W 
 474 W 4.1388 7.138 8.8639 W 
 475 W 7.376 7.5544 7.9188 W 
 476 W 4.0035 6.1405 4.7224 W 
 477 W 8.658 6.0485 3.5725 W 
 478 W 7.1947 5.1313 2.9926 W 
 479 W 6.8595 6.4175 1.2242 W 
 480 W 3.6017 7.0436 4.9965 W 
 481 W 9.7964 4.8011 4.9465 W 
 482 W 8.9467 6.384 7.8877 W 
 483 P 0.27426 1.9187 5.2015 P 
 484 H 4.5484 10.325 5.5343 H 
 485 H 5.4621 9.8775 5.5441 H 
 486 P 4.9129 9.2593 3.958 P 
 487 H 5.6153 10.582 4.8638 H 
 488 H 7.1876 10.395 4.9891 H 
 489 H 8.3349 0.66774 4.4791 H 
 490 W 6.4154 7.2466 4.4011 W 
 491 P 7.1867 9.8554 2.286 P 
 492 H 0.22809 0.96846 4.8645 H 
 493 W 2.5672 2.8302 6.9942 W 
 494 W 4.9649 8.9532 2.8786 W 
 495 W 7.6431 9.3416 1.6115 W 
 496 W 6.1649 7.925 2.9413 W 
 497 P 5.8617 9.4848 2.807 P 
 498 W 5.9663 1.2212 7.106 W 
 499 H 8.082 1.1779 5.1531 H 
 500 H 8.8049 0.42695 5.2827 H 
 501 W 0.54626 2.4084 6.6794 W 
 502 H 9.843 0.33446 5.1279 H 
 503 W 10.752 3.5949 4.4143 W 
 504 W 3.591 8.7253 8.4081 W 
 505 W 3.1276 7.8794 5.2049 W 
 506 H 6.4561 1.0712 5.3842 H 
 507 P 6.4104 10.494 6.6503 P 
 508 W 9.8825 3.4444 6.4372 W 
 509 W 5.2496 0.39016 8.6373 W 
 510 W 9.7308 2.5182 6.6445 W 
 511 W 3.0513 2.4071 5.337 W 
 512 W 4.7845 3.996 7.8321 W 
 513 P 1.3379 10.675 0.49563 P 
 514 H 1.1215 0.21377 3.1557 H 
 515 W 2.7173 3.7293 4.0796 W 
 516 W 5.8224 0.21006 7.1774 W 
 517 P 6.4881 1.5722 6.357 P 
 518 W 8.0437 5.2796 0.81688 W 
 519 W 7.8148 3.9597 8.2021 W 
 520 H 6.7427 1.25 3.1325 H 
 521 W 2.7859 5.3866 7.2463 W 
 522 W 1.068 2.7146 5.7444 W 
 523 W 4.9856 5.2747 5.6784 W 
 524 W 7.0909 1.4162 7.2944 W 
 525 W 4.4032 3.0298 6.5219 W 
 526 W 6.9023 2.99 6.8038 W 
 527 P 6.3438 3.1979 3.304 P 
 528 W 5.7621 3.2207 5.8092 W 
 529 W 7.959 1.9404 7.1613 W 
 530 H 6.9808 1.7413 3.8919 H 
 531 W 7.5466 4.9518 4.645 W 
 532 W 2.8146 3.7055 7.6362 W 
 533 W 2.8071 5.9524 5.5877 W 
 534 W 4.5018 4.7066 6.3769 W 
 535 W 5.628 5.0162 3.0236 W 
 536 W 6.5682 5.4575 6.2774 W 
 537 W 6.5762 6.3632 3.9222 W 
 538 W 6.3374 4.5739 1.1741 W 
 539 P 6.1983 2.8742 4.1862 P 
 540 H 5.8473 0.89011 3.5284 H 
 541 W 1.4803 3.7483 5.5103 W 
 542 W 1.775 4.2692 6.2553 W 
 543 W 1.4192 5.737 5.0614 W 
 544 W 4.1193 3.6773 5.0255 W 
 545 W 4.04 3.8627 5.9398 W 
 546 W 6.3023 3.4114 8.5819 W 
 547 W 7.0858 7.3969 5.3195 W 
 548 P 4.7473 3.1634 4.452 P 
 549 H 8.7619 1.8653 1.9574 H 
 550 H 9.2977 0.94611 1.9795 H 
 551 W 0.79222 4.978 5.0835 W 
 552 W 1.4992 6.0166 8.4215 W 
 553 W 3.337 6.7314 8.6042 W 
 554 W 0.15246 2.8564 5.2623 W 
 555 W 2.3559 2.8423 3.7159 W 
 556 W 4.2919 5.3385 2.0444 W 
 557 W 6.5132 3.8635 3.9783 W 
 558 W 9.4097 5.2497 4.0306 W 
 559 W 8.5511 6.5201 5.9426 W 
 560 W 0.22757 5.2778 3.3717 W 
 561 W 2.8116 6.2677 2.9966 W 
 562 W 2.0078 6.377 5.734 W 
 563 W 9.3201 6.0743 5.8837 W 
 564 W 6.2116 6.4017 4.9055 W 
 565 W 4.6382 6.2638 3.3371 W 
 566 W 5.645 6.4916 3.7421 W 
 567 H 7.4586 9.573 5.5324 H 
 568 W 7.1628 6.615 4.6253 W 
 569 W 8.0329 6.7857 4.031 W 
 570 W 7.9866 8.242 3.0342 W 
 571 W 10.426 4.6874 2.8668 W 
 572 W 10.737 4.4904 4.788 W 
 573 W 5.4889 7.1607 4.5087 W 
 574 W 5.8703 7.7969 6.1247 W 
 575 W 7.3454 7.624 6.929 W 
 576 W 9.2031 7.1552 6.2299 W 
 577 W 6.9178 6.3473 9.0212 W 
 578 W 6.415 4.8443 7.1356 W 
 579 W 9.3383 6.103 8.6831 W 
 580 W 7.0824 5.0615 5.4295 W 
 581 W 10.326 6.432 5.7532 W 
 582 H 10.345 0.50493 3.989 H 
 583 W 7.002 6.0655 5.4789 W 
 584 H 3.7144 10.394 4.6019 H 
 585 P 3.7294 9.4377 4.4045 P 
 586 H 5.4523 9.8668 4.1648 H 
 587 W 6.635 10.018 7.5647 W 
 588 W 8.7448 3.2288 4.9605 W 
 589 W 6.6979 8.6984 3.0445 W 
 590 W 8.8449 8.0685 6.7354 W 
 591 H 7.0988 10.585 3.151 H 
 592 H 6.7365 0.4325 3.7395 H 
 593 W 1.2988 3.1567 4.8476 W 
 594 H 4.1028 0.49777 4.3253 H 
 595 W 4.7551 1.0473 8.1143 W 
 596 W 7.3094 2.7845 5.944 W 
 597 W 1.0827 6.0358 6.8217 W 
 598 W 7.9941 7.8505 5.6469 W 
 599 H 8.1711 0.55561 5.9191 H 
 600 W 1.7323 4.166 7.9424 W 
 601 W 9.9495 1.8432 7.9816 W 
 602 H 1.5902 1.057 10.15 H 
 603 H 1.3627 0.87887 0.42305 H 
 604 W 6.5097 9.8297 9.857 W 
 605 W 5.6306 10.106 9.8585 W 
 606 W 3.8334 7.5809 7.7552 W 
 607 W 4.5491 2.1048 6.1405 W 
 608 W 8.4463 3.4577 9.7817 W 
 609 H 6.4892 0.25685 4.7716 H 
 610 W 6.3761 2.516 6.2107 W 
 611 W 10.581 2.9597 6.8365 W 
 612 H 3.1676 1.7125 8.5096 H 
 613 W 0.74961 4.1574 6.2145 W 
 614 W 3.9227 8.924 0.029143 W 
 615 P 4.1785 0.61055 9.2673 P 
 616 P 4.6685 1.5861 9.2801 P 
 617 W 6.5905 3.2457 7.6103 W 
 618 W 5.5741 1.2527 8.8231 W 
 619 P 7.0123 0.80678 6.5467 P 
 620 H 7.4054 0.50763 4.6196 H 
 621 W 7.6141 3.6369 6.2416 W 
 622 H 2.0668 1.8787 8.6028 H 
 623 W 1.8271 3.4965 4.139 W 
 624 W 1.7075 4.7492 5.2489 W 
 625 P 3.2761 10.401 8.7971 P 
 626 W 5.547 1.8697 6.5448 W 
 627 W 6.6576 3.5068 5.9719 W 
 628 W 7.9611 3.241 8.9634 W 
 629 H 6.1169 2.326 1.6448 H 
 630 W 9.8291 3.4232 8.4985 W 
 631 W 2.6614 4.684 6.5578 W 
 632 W 2.4209 3.7554 6.771 W 
 633 W 4.8175 4.7726 8.5149 W 
 634 W 5.3791 4.6614 4.8019 W 
 635 H 4.7765 0.30413 5.0223 H 
 636 W 5.9741 4.0269 6.4805 W 
 637 H 5.4935 1.612 2.9907 H 
 638 W 8.3804 3.6256 6.8198 W 
 639 H 5.9892 1.9274 3.8962 H 
 640 W 9.9004 4.4171 5.9891 W 
 641 W 9.9092 4.4443 7.0076 W 
 642 W 1.71 5.1511 6.915 W 
 643 W 0.99609 5.0377 5.9903 W 
 644 W 4.8525 6.1942 6.5876 W 
 645 W 3.5236 4.8892 6.034 W 
 646 W 6.3986 2.0498 7.1367 W 
 647 H 5.0874 2.4352 3.6598 H 
 648 W 8.65 6.2022 4.5411 W 
 649 P 7.2355 3.3362 3.4248 P 
 650 W 9.5337 5.2716 6.565 W 
 651 W 10.733 4.5091 7.41 W 
 652 W 0.54688 3.7772 5.2707 W 
 653 W 0.37203 5.7476 8.3264 W 
 654 W 2.4665 6.1635 8.1911 W 
 655 P 5.6663 2.2881 5.5669 P 
 656 W 5.5441 4.4228 5.6476 W 
 657 W 7.9678 6.2931 6.801 W 
 658 W 5.8534 5.7968 7.0813 W 
 659 W 1.8477 5.4329 5.8918 W 
 660 W 10.662 5.461 4.9554 W 
 661 W 8.9994 4.2699 4.8883 W 
 662 W 2.2409 6.9021 7.1344 W 
 663 W 4.9689 5.3742 7.0136 W 
 664 W 0.85375 6.4105 4.7608 W 
 665 H 5.1874 1.4298 3.8384 H 
 666 W 4.5429 6.1288 5.5253 W 
 667 W 8.5548 6.8178 8.7028 W 
 668 W 5.6093 5.0278 6.4242 W 
 669 W 8.6733 2.5971 7.2737 W 
 670 W 10.629 4.0341 6.4803 W 
 671 P 1.1735 0.032381 1.7562 P 
 672 H 0.0098225 10.618 3.3353 H 
 673 W 5.3023 5.9831 5.0441 W 
 674 W 5.5842 6.7685 6.5428 W 
 675 W 4.6093 7.0978 2.7367 W 
 676 W 6.6119 6.3459 6.5963 W 
 677 W 6.9744 8.9824 9.9181 W 
 678 W 6.4756 4.4412 5.8662 W 
 679 W 8.2526 4.8167 5.4783 W 
 680 W 1.0734 5.5875 7.6633 W 
 681 W 3.3311 7.3139 6.0142 W 
 682 W 4.1016 5.6147 6.2432 W 
 683 W 5.1225 7.6761 5.202 W 
 684 W 6.3785 7.3814 6.9225 W 
 685 W 5.0156 10.767 7.6931 W 
 686 W 4.7446 8.3996 5.8584 W 
 687 W 4.7625 9.6877 7.4706 W 
 688 P 7.3796 10.751 6.9941 P 
 689 W 8.6225 8.2227 2.13 W 
 690 W 10.089 5.1519 8.395 W 
 691 W 8.6366 2.0923 6.4113 W 
 692 H 1.6998 1.8081 9.4688 H 
 693 W 3.7915 2.7652 4.7163 W 
 694 W 6.0046 6.663 7.4019 W 
 695 W 5.3131 7.5208 7.1916 W 
 696 W 5.7189 8.4973 5.4126 W 
 697 H 8.021 10.701 5.1815 H 
 698 H 7.3978 10.451 5.9068 H 
 699 W 6.567 0.57316 7.577 W 
 700 W 7.6358 2.7286 9.9786 W 
 701 W 8.2051 2.9683 5.6583 W 
 702 W 4.9777 8.469 0.52116 W 
 703 W 4.7198 2.1423 7.1003 W 
 704 W 4.2336 8.6397 1.0182 W 
 705 W 5.2985 4.3543 7.0161 W 
 706 W 4.7484 10.657 9.4463 W 
 707 W 5.4831 2.5007 7.3179 W 
 708 W 6.0461 2.6154 8.0853 W 
 709 W 5.8046 8.0106 4.5814 W 
 710 W 5.7013 0.78037 7.8999 W 
 711 W 9.6488 4.1461 4.2385 W 
 712 W 0.41713 3.2885 6.1339 W 
 713 W 3.9757 2.7781 5.6585 W 
 714 W 3.1996 3.1053 6.0269 W 
 715 H 2.5351 1.0906 9.6146 H 
 716 W 4.7484 10.078 10.234 W 
 717 W 6.4663 1.5602 7.9323 W 
 718 W 8.5233 1.6216 8.1346 W 
 719 W 5.6326 10.292 8.9396 W 
 720 H 7.3064 0.63765 5.4993 H 
 721 W 10.283 3.6569 7.6372 W 
 722 W 2.5467 3.8765 5.8198 W 
 723 H 9.8774 1.0694 4.7527 H 
 724 W 4.3539 4.7753 7.6655 W 
 725 H 2.6839 0.58163 9.0472 H 
 726 W 6.9166 2.4526 8.5119 W 
 727 W 7.1733 2.415 7.5204 W 
 728 W 7.2385 2.1073 6.5917 W 
 729 W 6.6229 5.4626 8.8984 W 
 730 W 8.0757 4.2243 4.7289 W 
 731 W 7.5088 3.4376 5.1969 W 
 732 W 1.9486 5.9867 7.4627 W 
 733 W 5.0536 3.456 7.1437 W 
 734 W 4.3462 3.9897 6.9119 W 
 735 H 5.3604 10.739 5.8829 H 
 736 P 5.4861 10.041 6.6282 P 
 737 W 6.9763 3.0287 9.3052 W 
 738 W 1.7569 3.2581 7.3849 W 
 739 H 7.894 1.5416 3.2177 H 
 740 W 9.5888 2.8635 7.6054 W 
 741 W 9.9515 5.4163 7.3742 W 
 742 W 3.53 4.8194 7.0027 W 
 743 H 4.0698 3.834 10.313 H 
 744 W 3.3267 4.2385 5.2907 W 
 745 W 5.7868 5.9169 9.2126 W 
 746 W 6.4959 4.3877 9.0053 W 
 747 W 7.3502 6.2388 10.036 W 
 748 W 10.27 6.082 8.0372 W 
 749 H 7.3873 2.3584 3.2338 H 
 750 W 7.8535 4.7142 9.9655 W 
 751 H 3.4766 2.9388 10.619 H 
 752 W 2.5468 4.5955 7.6884 W 
 753 W 3.3222 3.9735 6.557 W 
 754 W 5.3221 6.6843 5.6172 W 
 755 H 5.6698 1.6193 4.8048 H 
 756 W 7.2582 3.2783 8.3456 W 
 757 W 9.2191 5.392 10.146 W 
 758 W 7.3961 7.5214 4.4733 W 
 759 H 7.8354 9.7731 4.5641 H 
 760 W 8.4849 3.8671 5.6595 W 
 761 W 2.2741 5.8596 6.5859 W 
 762 W 1.8394 5.1427 7.9543 W 
 763 W 5.3904 4.8887 7.8073 W 
 764 W 5.6513 5.9262 6.0669 W 
 765 W 4.9047 6.2773 4.276 W 
 766 W 6.0949 7.3942 5.2036 W 
 767 W 7.6548 6.8722 6.0336 W 
 768 W 7.036 7.0169 2.414 W 
 769 W 7.2355 4.6923 6.5424 W 
 770 W 8.181 5.0904 7.9995 W 
 771 H 0.37005 0.16523 2.4638 H 
 772 W 10.049 4.3664 9.0703 W 
 773 W 4.7133 5.8236 7.9109 W 
 774 H 4.0888 1.9471 9.8989 H 
 775 W 4.6451 7.1385 9.8755 W 
 776 W 6.7554 8.1892 4.753 W 
 777 W 7.3534 9.3398 6.9829 W 
 778 W 6.2534 8.9881 7.5965 W 
 779 W 2.8754 7.014 7.8335 W 
 780 W 6.3582 4.6732 4.9824 W 
 781 W 3.4182 5.8449 8.1195 W 
 782 W 9.2768 3.7653 7.2551 W 
 783 W 4.3061 7.0303 5.816 W 
 784 W 5.1658 8.376 8.5921 W 
 785 W 6.837 7.7586 6.1428 W 
 786 W 5.8803 9.3595 9.1895 W 
 787 W 6.26 8.7389 8.4629 W 
 788 W 8.2956 5.8096 5.3368 W 
 789 W 9.3401 1.8664 7.2268 W 
 790 W 6.7354 8.1811 2.1786 W 
 791 H 1.249 2.3882 8.6725 H 
 792 W 2.7742 8.0862 9.5604 W 
 793 W 3.9429 5.629 7.2884 W 
 794 W 3.7085 6.4871 9.5957 W 
 795 W 4.5281 8.1141 7.3472 W 
 796 P 6.2897 9.3949 6.5974 P 
 797 W 6.2508 10.692 8.1971 W 
 798 W 5.8334 1.7457 9.7566 W 
 799 W 9.0261 6.329 6.8231 W 
 800 W 6.32 0.2223 9.9593 W 
 801 W 7.4353 1.6729 8.0914 W 
 802 P 4.1227 1.9979 7.8678 P 
 803 W 5.6103 10.052 7.636 W 
 804 W 4.977 6.6082 7.4808 W 
 805 H 2.6512 2.0344 9.3856 H 
 806 W 6.2006 9.7468 8.3287 W 
 807 W 7.1985 8.2789 8.5045 W 
 808 W 6.389 1.1061 9.4458 W 
 809 P 0.22832 3.1078 8.4097 P 
 810 W 7.1412 9.1513 8.0237 W 
 811 W 7.8494 5.1927 7.0209 W 
 812 P 0.89365 2.6307 7.5027 P 
 813 W 8.8124 3.5204 8.7148 W 
 814 W 4.2709 10.756 8.391 W 
 815 H 4.6764 2.155 10.733 H 
 816 W 6.309 4.8304 0.003459 W 
 817 W 6.2242 3.8596 10.421 W 
 818 W 6.7964 3.9914 6.9777 W 
 819 H 0.89357 2.4349 9.5652 H 
 820 W 0.85133 4.6055 7.8705 W 
 821 P 1.0524 3.3738 8.0336 P 
 822 W 1.2681 3.4572 6.5432 W 
 823 W 3.5056 3.1328 6.9634 W 
 824 W 6.1109 2.1159 10.615 W 
 825 W 5.9733 3.1757 6.8553 W 
 826 W 4.854 2.6035 8.0274 W 
 827 W 6.2197 0.35918 9.0293 W 
 828 W 1.084 5.1419 8.6303 W 
 829 W 9.1121 4.1069 6.3856 W 
 830 W 9.4704 3.7325 5.4708 W 
 831 W 6.7224 3.0291 5.1979 W 
 832 W 10.443 2.616 7.8781 W 
 833 P 3.6468 3.2474 8.2723 P 
 834 W 4.604 3.3505 8.6518 W 
 835 W 4.5292 4.4845 5.2923 W 
 836 W 6.8154 2.1516 9.7712 W 
 837 W 5.4556 3.3228 8.0032 W 
 838 W 8.7311 5.9693 9.4182 W 
 839 W 9.3792 6.7051 9.5166 W 
 840 W 8.7957 4.278 8.1887 W 
 841 W 9.9471 6.0724 6.6444 W 
 842 H 2.0426 2.7119 9.2223 H 
 843 H 2.8844 2.7066 8.6849 H 
 844 W 6.7175 6.8249 7.9284 W 
 845 P 5.7167 4.1233 0.47048 P 
 846 W 4.9913 3.8498 6.2361 W 
 847 W 6.24 4.9171 8.0741 W 
 848 W 8.6868 5.635 7.3865 W 
 849 W 8.2867 5.9758 8.4686 W 
 850 W 8.935 3.0239 6.3451 W 
 851 W 8.256 5.2005 9.0478 W 
 852 W 10.183 5.2203 9.4208 W 
 853 P 4 4.536 9.7255 P 
 854 W 5.6743 5.7376 8.1694 W 
 855 P 5.5699 3.216 10.595 P 
 856 W 7.739 5.8477 7.6452 W 
 857 W 5.5577 2.8324 4.8418 W 
 858 W 7.7286 4.3186 7.2852 W 
 859 H 0.73168 3.4752 10.343 H 
 860 W 8.1944 4.2626 9.2121 W 
 861 W 9.3932 3.9023 9.457 W 
 862 W 4.0179 6.6621 7.7034 W 
 863 W 3.2819 5.738 9.1696 W 
 864 W 3.907 5.2153 8.6567 W 
 865 W 6.0393 6.7016 8.6722 W 
 866 W 7.1562 8.4895 7.3308 W 
 867 W 7.5845 6.7023 8.4279 W 
 868 W 8.1607 9.1097 7.5495 W 
 869 W 9.6523 4.4401 7.9128 W 
 870 W 0.74081 5.1003 6.885 W 
 871 P 1.9794 5.4387 9.0979 P 
 872 W 4.3795 9.0646 8.8245 W 
 873 W 3.0439 9.3662 0.27945 W 
 874 W 5.1108 5.8606 0.18968 W 
 875 W 6.8005 9.2043 9.0207 W 
 876 W 3.3672 4.9031 7.9237 W 
 877 W 7.9335 8.3664 6.6019 W 
 878 W 8.3406 7.2223 6.7031 W 
 879 W 7.4303 5.7346 8.4968 W 
 880 W 8.3926 6.2812 0.63837 W 
 881 W 2.9063 7.885 1.2497 W 
 882 P 2.8419 0.1143 0.52221 P 
 883 W 5.1314 6.5552 8.4106 W 
 884 W 4.4212 7.0236 6.8871 W 
 885 W 6.6198 5.785 7.9879 W 
 886 W 5.9787 7.8142 8.8177 W 
 887 H 6.4436 10.145 4.4758 H 
 888 W 5.5139 1.7187 7.8616 W 
 889 W 7.1572 0.4494 9.2815 W 
 890 H 1.6662 0.93905 9.0988 H 
 891 H 2.1923 1.7396 10.223 H 
 892 H 2.4315 0.82924 10.625 H 
 893 W 2.6876 10.04 2.6488 W 
 894 W 3.7537 6.4282 6.6483 W 
 895 W 6.1082 7.4573 10.443 W 
 896 W 4.4543 8.9415 6.5932 W 
 897 H 6.4696 9.7929 5.6288 H 
 898 W 2.8185 2.1632 6.3205 W 
 899 W 8.4875 0.32041 8.1815 W 
 900 W 10.544 5.0755 6.579 W 
 901 W 8.3765 2.9811 10.629 W 
 902 H 0.80174 1.616 9.0771 H 
 903 W 4.1873 5.5859 9.5403 W 
 904 W 5.5102 9.2337 7.1564 W 
 905 W 7.6398 9.4771 10.473 W 
 906 W 5.3628 9.2769 8.2522 W 
 907 W 7.7246 9.4932 9.4753 W 
 908 W 7.081 1.3876 0.39721 W 
 909 W 7.9558 2.5562 7.9873 W 
 910 W 3.1679 9.1935 9.116 W 
 911 W 7.6107 3.3858 7.4439 W 
 912 H 1.2593 1.712 7.9653 H 
 913 W 4.4052 8.8818 7.9278 W 
 914 W 3.659 7.4243 9.5755 W 
 915 W 2.6406 5.1498 8.5056 W 
 916 W 5.0902 8.6927 9.5318 W 
 917 W 3.6793 8.3907 9.3834 W 
 918 W 6.5901 8.2733 10.412 W 
 919 H 0.15057 3.0904 9.4885 H 
 920 W 0.19841 4.8444 8.6795 W 
 921 W 8.5121 3.4151 7.7871 W 
 922 W 5.297 2.7088 6.4159 W 
 923 W 4.899 10.101 8.3458 W 
 924 W 2.5853 0.1018 2.0171 W 
 925 W 5.4916 3.3854 9.0985 W 
 926 W 7.0562 2.2976 10.682 W 
 927 W 8.1761 7.738 7.4241 W 
 928 W 5.7104 0.95169 10.401 W 
 929 W 7.171 3.6023 10.118 W 
 930 W 7.4744 3.0951 0.067621 W 
 931 W 6.8227 4.5279 9.8733 W 
 932 W 0.12669 4.0196 8.1836 W 
 933 W 3.7205 3.9594 7.6414 W 
 934 H 4.0164 3.4162 0.58044 H 
 935 H 4.8017 3.8229 0.90087 H 
 936 W 5.9912 3.9783 7.5079 W 
 937 H 5.2896 1.8834 1.9868 H 
 938 W 8.3837 6.9157 9.6006 W 
 939 W 8.8286 2.5114 8.3551 W 
 940 W 8.8046 4.4535 10.087 W 
 941 P 3.1606 4.7663 9.2251 P 
 942 H 2.3428 3.4737 10.569 H 
 943 W 2.9772 7.4746 10.422 W 
 944 H 4.1736 2.5438 0.88268 H 
 945 W 3.3374 7.6746 8.6656 W 
 946 W 6.7719 4.1224 8.0753 W 
 947 W 8.1426 6.7471 7.621 W 
 948 W 7.1541 4.9895 7.7994 W 
 949 W 7.4526 4.9326 0.030698 W 
 950 W 6.3576 2.9213 10.146 W 
 951 H 2.6048 4.337 10.107 H 
 952 W 6.4296 6.7937 5.795 W 
 953 W 3.9221 7.1325 10.638 W 
 954 W 5.5307 8.402 7.7375 W 
 955 H 4.8389 2.964 0.45029 H 
 956 W 4.7797 4.0717 9.2383 W 
 957 W 7.0114 5.6274 7.111 W 
 958 W 7.8534 6.2027 9.236 W 
 959 W 7.4201 4.7867 8.7722 W 
 960 W 9.0921 5.2431 8.2596 W 
 961 H 1.317 4.6516 0.24175 H 
 962 W 2.9101 6.6052 6.3154 W 
 963 W 2.3027 10.003 0.64314 W 
 964 W 5.6528 5.0074 8.931 W 
 965 W 4.8885 4.949 9.522 W 
 966 W 4.9354 5.6058 8.7942 W 
 967 W 6.0717 8.4363 9.5571 W 
 968 W 6.6782 9.286 10.706 W 
 969 W 8.7873 4.6819 7.2302 W 
 970 H 1.958 10.621 9.0081 H 
 971 H 1.7709 5.0163 10.045 H 
 972 P 3.4954 5.27 10.075 P 
 973 H 2.9764 4.8122 0.094575 H 
 974 W 4.9401 9.6612 9.3571 W 
 975 W 3.5061 8.2167 0.48617 W 
 976 W 6.5304 7.9542 7.9019 W 
 977 W 7.2991 10.114 8.3177 W 
 978 W 6.981 3.9888 0.24854 W 
 979 W 6.8011 0.73898 8.4977 W 
 980 P 2.4173 9.7754 8.5446 P 
 981 P 3.5566 0.73403 2.1187 P 
 982 W 2.6798 8.8273 1.6567 W 
 983 W 3.3122 9.0246 10.107 W 
 984 W 4.3105 9.159 9.9079 W 
 985 W 6.212 8.4224 6.8011 W 
 986 W 7.0845 8.1173 9.5273 W 
 987 W 4.5665 7.671 4.4632 W 
 988 W 3.0275 4.1654 8.4125 W 
 989 W 6.2015 7.3692 2.1841 W 
 990 H 0.502 4.1526 0.29355 H 
 991 W 8.6176 1.1421 7.1073 W 
 992 H 1.9834 2.0875 1.2152 H 
 993 W 2.1961 3.0377 6.0115 W 
 994 W 4.2707 8.0691 8.4913 W 
 995 W 4.4508 6.1463 10.311 W 
 996 P 7.0165 8.8169 6.2745 P 
 997 W 7.1271 4.1133 1.3804 W 
 998 W 7.8089 0.81148 8.6512 W 
 999 W 6.7293 10.383 8.9927 W 
 1000 W 10.548 1.9111 6.8884 W 
@<TRIPOS>BOND
1 2 291 1
2 5 115 1
3 9 10 1
4 10 109 1
5 11 22 1
6 12 22 1
7 14 25 1
8 14 123 1
9 15 115 1
10 17 127 1
11 19 29 1
12 20 120 1
13 24 514 1
14 27 127 1
15 29 30 1
16 32 133 1
17 33 133 1
18 34 44 1
19 37 38 1
20 38 48 1
21 39 139 1
22 44 45 1
23 47 138 1
24 49 150 1
25 50 150 1
26 52 162 1
27 53 153 1
28 62 162 1
29 72 973 1
30 84 94 1
31 91 992 1
32 93 992 1
33 94 95 1
34 99 199 1
35 106 226 1
36 106 195 1
37 110 120 1
38 111 220 1
39 132 242 1
40 137 236 1
41 138 369 1
42 139 140 1
43 142 242 1
44 143 243 1
45 144 244 1
46 145 244 1
47 152 153 1
48 154 254 1
49 155 255 1
50 156 256 1
51 161 263 1
52 163 273 1
53 165 255 1
54 172 273 1
55 175 275 1
56 176 275 1
57 189 199 1
58 192 514 1
59 202 291 1
60 205 336 1
61 220 310 1
62 233 243 1
63 236 237 1
64 245 256 1
65 253 254 1
66 263 361 1
67 269 328 1
68 271 990 1
69 277 376 1
70 301 312 1
71 302 312 1
72 303 403 1
73 304 404 1
74 306 416 1
75 307 407 1
76 314 415 1
77 315 415 1
78 316 416 1
79 317 417 1
80 319 429 1
81 321 422 1
82 322 422 1
83 323 423 1
84 326 427 1
85 327 427 1
86 328 527 1
87 329 429 1
88 334 435 1
89 335 435 1
90 336 981 1
91 341 441 1
92 372 472 1
93 376 488 1
94 381 391 1
95 381 382 1
96 385 485 1
97 388 609 1
98 388 507 1
99 389 390 1
100 390 400 1
101 397 398 1
102 397 497 1
103 399 499 1
104 401 723 1
105 402 403 1
106 404 405 1
107 406 506 1
108 407 408 1
109 409 419 1
110 410 599 1
111 413 423 1
112 414 805 1
113 414 615 1
114 417 418 1
115 419 420 1
116 428 629 1
117 430 530 1
118 431 441 1
119 439 440 1
120 440 450 1
121 449 549 1
122 462 472 1
123 483 492 1
124 484 485 1
125 486 586 1
126 487 586 1
127 489 499 1
128 491 591 1
129 492 582 1
130 500 599 1
131 502 723 1
132 506 517 1
133 513 603 1
134 520 530 1
135 539 639 1
136 540 639 1
137 548 647 1
138 549 550 1
139 567 759 1
140 567 996 1
141 584 594 1
142 584 585 1
143 591 592 1
144 602 603 1
145 612 622 1
146 612 802 1
147 616 774 1
148 619 720 1
149 620 720 1
150 625 725 1
151 629 937 1
152 635 735 1
153 637 647 1
154 649 749 1
155 655 755 1
156 665 755 1
157 671 771 1
158 672 771 1
159 688 698 1
160 692 791 1
161 697 698 1
162 715 725 1
163 735 736 1
164 739 749 1
165 743 751 1
166 743 853 1
167 774 815 1
168 791 821 1
169 796 897 1
170 809 919 1
171 812 912 1
172 819 919 1
173 833 843 1
174 842 843 1
175 845 935 1
176 855 955 1
177 859 990 1
178 871 971 1
179 882 892 1
180 887 897 1
181 890 970 1
182 891 892 1
183 902 912 1
184 934 935 1
185 941 951 1
186 942 951 1
187 944 955 1
188 961 971 1
189 970 980 1
190 972 973 1
